/*--------------------------------*- C++ -*----------------------------------*\
| =========                 |                                                 |
| \\      /  F ield         | OpenFOAM: The Open Source CFD Toolbox           |
|  \\    /   O peration     | Version:  v2012                                 |
|   \\  /    A nd           | Website:  www.openfoam.com                      |
|    \\/     M anipulation  |                                                 |
\*---------------------------------------------------------------------------*/
FoamFile
{
    version     2.0;
    format      ascii;
    class       dictionary;
    location    "system";
    object      controlDict;
}
// * * * * * * * * * * * * * * * * * * * * * * * * * * * * * * * * * * * * * //

application     pimpleFoam;

startFrom       latestTime;

startTime       0;

stopAt          endTime;

endTime         160;//160;

deltaT          0.04;

writeControl    timeStep;

writeInterval   25;// 2500; // every 10s

writeFormat     binary;

writePrecision  8;

writeCompression off;

timeFormat      general;

timePrecision   6;

runTimeModifiable true;


functions
{
    forces
    {
        type            forces;
        libs            (forces);
        writeControl    writeTime;

        patches         (hole);
        CofR            (0 0 0); // Centre of rotation for moment calculations
        writeFields     yes;

        rho             rhoInf;
        rhoInf          1.0;
    }
    
    #include "forceCoeffs"
}


// ************************************************************************* //
